Version 4
SHEET 1 1768 696
WIRE -320 0 -416 0
WIRE 48 0 -320 0
WIRE 576 0 48 0
WIRE 1088 0 576 0
WIRE -320 16 -320 0
WIRE 336 64 288 64
WIRE 656 64 400 64
WIRE 848 64 800 64
WIRE 1168 64 912 64
WIRE 48 128 48 0
WIRE -320 144 -320 96
WIRE -256 144 -320 144
WIRE -96 144 -176 144
WIRE -64 144 -96 144
WIRE 576 144 576 0
WIRE 128 160 112 160
WIRE 176 160 128 160
WIRE 288 160 288 64
WIRE 288 160 256 160
WIRE 320 160 288 160
WIRE 416 160 400 160
WIRE 464 160 416 160
WIRE 1088 160 1088 0
WIRE -416 176 -416 0
WIRE -64 176 -80 176
WIRE 656 176 656 64
WIRE 656 176 640 176
WIRE 688 176 656 176
WIRE 800 176 800 64
WIRE 800 176 768 176
WIRE 832 176 800 176
WIRE 928 176 912 176
WIRE 976 176 928 176
WIRE -320 192 -320 144
WIRE 464 192 448 192
WIRE 1168 192 1168 64
WIRE 1168 192 1152 192
WIRE 1200 192 1168 192
WIRE 976 208 960 208
WIRE -80 256 -80 176
WIRE 128 256 128 160
WIRE 128 256 -80 256
WIRE 448 272 448 192
WIRE 656 272 656 176
WIRE 656 272 448 272
WIRE 960 288 960 208
WIRE 1168 288 1168 192
WIRE 1168 288 960 288
WIRE -96 304 -96 144
WIRE 416 304 416 160
WIRE 928 304 928 176
WIRE -320 352 -320 272
WIRE -416 480 -416 256
WIRE -320 480 -320 432
WIRE -320 480 -416 480
WIRE -96 480 -96 368
WIRE -96 480 -320 480
WIRE 48 480 48 192
WIRE 48 480 -96 480
WIRE 416 480 416 368
WIRE 416 480 48 480
WIRE 576 480 576 208
WIRE 576 480 416 480
WIRE 928 480 928 368
WIRE 928 480 576 480
WIRE 1088 480 1088 224
WIRE 1088 480 928 480
WIRE -416 512 -416 480
FLAG 1200 192 Vo
IOPIN 1200 192 Out
FLAG -416 512 0
SYMBOL AutoGenerated\\LM324 16 160 R0
SYMATTR InstName U1
SYMBOL res -160 128 R90
WINDOW 0 0 56 VBottom 2
WINDOW 3 32 56 VTop 2
SYMATTR InstName R1_S1
SYMATTR Value 3.9k
SYMBOL cap -112 304 R0
SYMATTR InstName C1_S1
SYMATTR Value 100n
SYMBOL res 272 144 R90
WINDOW 0 0 56 VBottom 2
WINDOW 3 32 56 VTop 2
SYMATTR InstName R1_S2
SYMATTR Value 2.2k
SYMATTR SpiceLine tol=5
SYMBOL cap 400 304 R0
SYMATTR InstName C1_S2
SYMATTR Value 100n
SYMBOL cap 400 48 R90
WINDOW 0 0 32 VBottom 2
WINDOW 3 32 32 VTop 2
SYMATTR InstName C2_S2
SYMATTR Value 150n
SYMBOL AutoGenerated\\LM324 544 176 R0
SYMATTR InstName U2
SYMBOL res 416 144 R90
WINDOW 0 0 56 VBottom 2
WINDOW 3 32 56 VTop 2
SYMATTR InstName R2_S2
SYMATTR Value 4.7k
SYMATTR SpiceLine tol=5
SYMBOL res 784 160 R90
WINDOW 0 0 56 VBottom 2
WINDOW 3 32 56 VTop 2
SYMATTR InstName R1_S3
SYMATTR Value 1.2k
SYMATTR SpiceLine tol=5
SYMBOL cap 912 304 R0
SYMATTR InstName C1_S3
SYMATTR Value 100n
SYMBOL cap 912 48 R90
WINDOW 0 0 32 VBottom 2
WINDOW 3 32 32 VTop 2
SYMATTR InstName C2_S3
SYMATTR Value 370n
SYMBOL AutoGenerated\\LM324 1056 192 R0
SYMATTR InstName U3
SYMBOL res 928 160 R90
WINDOW 0 0 56 VBottom 2
WINDOW 3 32 56 VTop 2
SYMATTR InstName R2_S3
SYMATTR Value 2.7k
SYMATTR SpiceLine tol=5
SYMBOL voltage -416 160 R0
WINDOW 123 0 0 Left 0
WINDOW 39 0 0 Left 0
SYMATTR InstName V2
SYMATTR Value 4.5
SYMBOL Misc\\signal -192 528 R0
WINDOW 123 24 132 Left 2
WINDOW 39 0 0 Left 0
SYMATTR Value2 AC 1
SYMATTR InstName V1
SYMATTR Value SINE(0 5m 250)
SYMBOL res -336 0 R0
SYMATTR InstName R1
SYMATTR Value 10k
SYMATTR SpiceLine tol=5
SYMBOL res -336 176 R0
SYMATTR InstName R2
SYMATTR Value 470
SYMATTR SpiceLine tol=1
SYMBOL Misc\\signal -320 336 R0
WINDOW 123 0 0 Left 0
WINDOW 39 0 0 Left 0
SYMATTR InstName V3
SYMATTR Value PULSE(0 1 10ms 1u 1u 250m 250m)
TEXT 304 520 Left 2 !;.ac dec 1000 1 5k
TEXT 304 560 Left 2 !.tran 250ms
